*KEYWORD_ID
DED
*PARAMETER
Rboltz    5.6704E-14
*PARAMETER
Rambient       300.0
*PARAMETER
Rabszero         0.0
*TOOL_FILE
toolpath_cube.crs
*GAUSS_LASER
600 1.12 0.4
*SCALAR_OUT
temp
solid_rate
theta_hist
nid_true
*CONTROL_TERMINATION
$$  ENDTIM    ENDCYC     DTMIN    ENDENG    ENDMAS
   920
*CONTROL_TIMESTEP
$$  DTINIT    TSSFAC      ISDO    TSLIMT     DT2MS      LCTM     EROD       E     MSIST
    2.0E-2       1.0
*CONTROL_SOLUTION
$$    SOLN
         0
*DATABASE_NODOUT
$$      DT    BINARY      LCUR      IOPT      DTHF     BINHF
    10         0
*MAT_THERMAL_ISOTROPIC_TD
$HMNAME MATS       1MATT1_1
         1   0.00798 1648.15  1673.15   290
./materials/316L_cp.txt
./materials/316L_cond.txt
*MAT_THERMAL_ISOTROPIC_TD
$HMNAME MATS       2MATT1_2
         2   0.00787  1693  1733   270
./materials/1018_cp.txt
./materials/1018_cond.txt
*PART
$HWCOLOR COMPS       1       3
Substrate
         1         0         1
$HWCOLOR COMPS       2       4
Build
         2         0         2
*LOAD_NODE_SET
$HMNAME LOADCOLS       1LoadNode_1
         3         1               300.0
$    moving flux
         2         5                 0.0
$    Radiation
         2         4                 0.2
$    convection
         2         3             0.00005
*INITIAL_TEMPERATURE_SET
$HMNAME LOADCOLS       1InitialTemp_1
$HWCOLOR LOADCOLS       1       3
         1     300.0
*DEFINE_CURVE
         1                 1.0       1.0
         52.68223038      14352.00000000
         52.68223038      15601.00000000
         52.68223038      15603.00000000
         52.68223038      14978.00000000
         52.68223038      14977.00000000
         52.68223038      14976.00000000
         52.68223038      15602.00000000
         52.75080181      14353.00000000
         52.75080181      15604.00000000
         52.75080181      14979.00000000
         52.78508752      14351.00000000
         52.81937324      14354.00000000
         52.81937324      14980.00000000
         52.81937324      15605.00000000
         52.88794467      14981.00000000
         52.88794467      15606.00000000
         52.88794467      14355.00000000
         52.95651610      14982.00000000
         52.95651610      15607.00000000
$ ... 15606 like lines cut
*NODE
$#   nid               x               y               z      tc      rc
       1        6.000000        6.000000       11.700000       0       0
       2        6.000000       -6.000000       11.700000       0       0
       3        6.000000       -6.000000       -0.300000       0       0
       4        6.000000        6.000000       -0.300000       0       0
       5       -6.000000       -6.000000       11.700000       0       0
       6       -6.000000       -6.000000       -0.300000       0       0
       7       -6.000000        6.000000       -0.300000       0       0
       8       -6.000000        6.000000       11.700000       0       0
       9      -50.000000        0.000000       -0.300000       0       0
      10      -50.000000        0.000000      -16.200000       0       0
      11        6.000000        5.520000       11.700000       0       0
      12        6.000000        5.040000       11.700000       0       0
      13        6.000000        4.560000       11.700000       0       0
      14        6.000000        4.080000       11.700000       0       0
      15        6.000000        3.600000       11.700000       0       0
      16        6.000000        3.120000       11.700000       0       0
      17        6.000000        2.640000       11.700000       0       0
      18        6.000000        2.160000       11.700000       0       0
      19        6.000000        1.680000       11.700000       0       0
      20        6.000000        1.200000       11.700000       0       0
$ ... 31345 like lines cut
*ELEMENT_SOLID
$#   eid     pid      n1      n2      n3      n4      n5      n6      n7      n8
       1       1     250    2761    9103    1609       1      11     457     106
       2       1    2761    2762    9104    9103      11      12     458     457
       3       1    2762    2763    9105    9104      12      13     459     458
       4       1    2763    2764    9106    9105      13      14     460     459
       5       1    2764    2765    9107    9106      14      15     461     460
       6       1    2765    2766    9108    9107      15      16     462     461
       7       1    2766    2767    9109    9108      16      17     463     462
       8       1    2767    2768    9110    9109      17      18     464     463
       9       1    2768    2769    9111    9110      18      19     465     464
      10       1    2769    2770    9112    9111      19      20     466     465
      11       1    2770    2771    9113    9112      20      21     467     466
      12       1    2771    2772    9114    9113      21      22     468     467
      13       1    2772    2773    9115    9114      22      23     469     468
      14       1    2773    2774    9116    9115      23      24     470     469
      15       1    2774    2775    9117    9116      24      25     471     470
      16       1    2775    2776    9118    9117      25      26     472     471
      17       1    2776    2777    9119    9118      26      27     473     472
      18       1    2777    2778    9120    9119      27      28     474     473
      19       1    2778    2779    9121    9120      28      29     475     474
      20       1    2779    2780    9122    9121      29      30     476     475
$ ... 27013 like lines cut
*SET_NODE_LIST
$#     sid       da1       da2       da3       da4    solver
         1
$#    nid1      nid2      nid3      nid4      nid5      nid6      nid7      nid8
         1         2         3         4         5         6         7         8
         9        10        11        12        13        14        15        16
        17        18        19        20        21        22        23        24
        25        26        27        28        29        30        31        32
        33        34        35        36        37        38        39        40
        41        42        43        44        45        46        47        48
        49        50        51        52        53        54        55        56
        57        58        59        60        61        62        63        64
        65        66        67        68        69        70        71        72
        73        74        75        76        77        78        79        80
        81        82        83        84        85        86        87        88
        89        90        91        92        93        94        95        96
        97        98        99       100       101       102       103       104
       105       106       107       108       109       110       111       112
       113       114       115       116       117       118       119       120
       121       122       123       124       125       126       127       128
       129       130       131       132       133       134       135       136
       137       138       139       140       141       142       143       144
       145       146       147       148       149       150       151       152
       153       154       155       156       157       158       159       160
$ ... 3901 like lines cut
*SET_NODE_LIST
$#     sid       da1       da2       da3       da4    solver
         2
$#    nid1      nid2      nid3      nid4      nid5      nid6      nid7      nid8
         1         2         5         8        11        12        13        14
        15        16        17        18        19        20        21        22
        23        24        25        26        27        28        29        30
        31        32        33        34        35        36        37        38
        39        40        41        42        43        44        45        46
        47        48        49        50        51        52        53        54
        55        56        57        58        83        84        85        86
        87        88        89        90        91        92        93        94
        95        96        97        98        99       100       101       102
       103       104       105       106       107       108       109       110
       111       112       113       114       115       116       117       118
       119       120       121       122       123       124       125       126
       127       128       129       130       131       132       133       134
       135       136       137       138       139       140       141       142
       143       144       145       146       147       148       149       150
       151       152       153       154       179       180       181       182
       183       184       185       186       187       188       189       190
       191       192       193       194       195       196       197       198
       199       200       201       202       227       228       229       230
       231       232       233       234       235       236       237       238
$ ... 2093 like lines cut
*SET_NODE_LIST
$#     sid       da1       da2       da3       da4    solver
         3
$#    nid1      nid2      nid3      nid4      nid5      nid6      nid7      nid8
        10
*SET_SOLID
$#     sid    solver
         1MECH
$#      k1        k2        k3        k4        k5        k6        k7        k8
         1         2         3         4         5         6         7         8
         9        10        11        12        13        14        15        16
        17        18        19        20        21        22        23        24
        25        26        27        28        29        30        31        32
        33        34        35        36        37        38        39        40
        41        42        43        44        45        46        47        48
        49        50        51        52        53        54        55        56
        57        58        59        60        61        62        63        64
        65        66        67        68        69        70        71        72
        73        74        75        76        77        78        79        80
        81        82        83        84        85        86        87        88
        89        90        91        92        93        94        95        96
        97        98        99       100       101       102       103       104
       105       106       107       108       109       110       111       112
       113       114       115       116       117       118       119       120
       121       122       123       124       125       126       127       128
       129       130       131       132       133       134       135       136
       137       138       139       140       141       142       143       144
       145       146       147       148       149       150       151       152
       153       154       155       156       157       158       159       160
$ ... 1934 like lines cut
*SET_SOLID
$#     sid    solver
         2MECH
$#      k1        k2        k3        k4        k5        k6        k7        k8
     15626     15627     15628     15629     15630     15631     15632     15633
     15634     15635     15636     15637     15638     15639     15640     15641
     15642     15643     15644     15645     15646     15647     15648     15649
     15650     15651     15652     15653     15654     15655     15656     15657
     15658     15659     15660     15661     15662     15663     15664     15665
     15666     15667     15668     15669     15670     15671     15672     15673
     15674     15675     15676     15677     15678     15679     15680     15681
     15682     15683     15684     15685     15686     15687     15688     15689
     15690     15691     15692     15693     15694     15695     15696     15697
     15698     15699     15700     15701     15702     15703     15704     15705
     15706     15707     15708     15709     15710     15711     15712     15713
     15714     15715     15716     15717     15718     15719     15720     15721
     15722     15723     15724     15725     15726     15727     15728     15729
     15730     15731     15732     15733     15734     15735     15736     15737
     15738     15739     15740     15741     15742     15743     15744     15745
     15746     15747     15748     15749     15750     15751     15752     15753
     15754     15755     15756     15757     15758     15759     15760     15761
     15762     15763     15764     15765     15766     15767     15768     15769
     15770     15771     15772     15773     15774     15775     15776     15777
     15778     15779     15780     15781     15782     15783     15784     15785
$ ... 1406 like lines cut

*END