*KEYWORD_ID
DED
*PARAMETER
Rboltz    5.6704E-14
*PARAMETER
Rambient       300.0
*PARAMETER
Rabszero         0.0
*TOOL_FILE
toolpath_cube.crs
*GAUSS_LASER
600 1.12 0.4
*SCALAR_OUT
temp
solid_rate
theta_hist
nid_true
*CONTROL_TERMINATION
$$  ENDTIM    ENDCYC     DTMIN    ENDENG    ENDMAS
   920
*CONTROL_TIMESTEP
$$  DTINIT    TSSFAC      ISDO    TSLIMT     DT2MS      LCTM     EROD       E     MSIST
    2.0E-2       1.0
*CONTROL_SOLUTION
$$    SOLN
         0
*DATABASE_NODOUT
$$      DT    BINARY      LCUR      IOPT      DTHF     BINHF
    10         0
*MAT_THERMAL_ISOTROPIC_TD
$HMNAME MATS       1MATT1_1
         1   0.00798 1648.15  1673.15   290
./materials/316L_cp.txt
./materials/316L_cond.txt
*MAT_THERMAL_ISOTROPIC_TD
$HMNAME MATS       2MATT1_2
         2   0.00787  1693  1733   270
./materials/1018_cp.txt
./materials/1018_cond.txt
*PART
$HWCOLOR COMPS       1       3
Substrate
         1         0         1
$HWCOLOR COMPS       2       4
Build
         2         0         2
*LOAD_NODE_SET
$HMNAME LOADCOLS       1LoadNode_1
         3         1               300.0
$    moving flux
         2         5                 0.0
$    Radiation
         2         4                 0.2
$    convection
         2         3             0.00005
*INITIAL_TEMPERATURE_SET
$HMNAME LOADCOLS       1InitialTemp_1
$HWCOLOR LOADCOLS       1       3
         1     300.0
*DEFINE_CURVE
         1                 1.0       1.0
          0.04633205       5591.00000000
          0.04633205       6996.00000000
          0.04633205       5554.00000000
          0.04633205       6994.00000000
          0.04633205       6959.00000000
          0.04633205       6958.00000000
          0.04633205       6957.00000000
          0.04633205       6995.00000000
          0.09266409       6960.00000000
          0.09266409       8402.00000000
          0.09266409       8401.00000000
          0.09266409       8400.00000000
          0.09266409       8365.00000000
          0.09266409       6997.00000000
          0.09266409       8363.00000000
          0.09266409       8364.00000000
          0.13899614       9808.00000000
          0.13899614       9806.00000000
          0.13899614       9770.00000000
$ ... 51973 like lines cut
*NODE
$#   nid               x               y               z      tc      rc
       1        6.000000        6.000000       12.350000       0       0
       2        6.000000       -6.000000       12.350000       0       0
       3        6.000000       -6.000000       -0.000000       0       0
       4        6.000000        6.000000       -0.000000       0       0
       5       -6.000000       -6.000000       12.350000       0       0
       6       -6.000000       -6.000000       -0.000000       0       0
       7       -6.000000        6.000000       -0.000000       0       0
       8       -6.000000        6.000000       12.350000       0       0
       9      -50.000000        0.000000       -0.000000       0       0
      10      -50.000000        0.000000      -15.900000       0       0
      11        6.000000        5.675676       12.350000       0       0
      12        6.000000        5.351351       12.350000       0       0
      13        6.000000        5.027027       12.350000       0       0
      14        6.000000        4.702703       12.350000       0       0
      15        6.000000        4.378378       12.350000       0       0
      16        6.000000        4.054054       12.350000       0       0
      17        6.000000        3.729730       12.350000       0       0
      18        6.000000        3.405406       12.350000       0       0
      19        6.000000        3.081081       12.350000       0       0
      20        6.000000        2.756757       12.350000       0       0
$ ... 63054 like lines cut
*ELEMENT_SOLID
$#   eid     pid      n1      n2      n3      n4      n5      n6      n7      n8
       1       1     374    5837   12421    3173       1      11     509     156
       2       1    5837    5838   12422   12421      11      12     510     509
       3       1    5838    5839   12423   12422      12      13     511     510
       4       1    5839    5840   12424   12423      13      14     512     511
       5       1    5840    5841   12425   12424      14      15     513     512
       6       1    5841    5842   12426   12425      15      16     514     513
       7       1    5842    5843   12427   12426      16      17     515     514
       8       1    5843    5844   12428   12427      17      18     516     515
       9       1    5844    5845   12429   12428      18      19     517     516
      10       1    5845    5846   12430   12429      19      20     518     517
      11       1    5846    5847   12431   12430      20      21     519     518
      12       1    5847    5848   12432   12431      21      22     520     519
      13       1    5848    5849   12433   12432      22      23     521     520
      14       1    5849    5850   12434   12433      23      24     522     521
      15       1    5850    5851   12435   12434      24      25     523     522
      16       1    5851    5852   12436   12435      25      26     524     523
      17       1    5852    5853   12437   12436      26      27     525     524
      18       1    5853    5854   12438   12437      27      28     526     525
      19       1    5854    5855   12439   12438      28      29     527     526
      20       1    5855    5856   12440   12439      29      30     528     527
$ ... 57436 like lines cut
*SET_NODE_LIST
$#     sid       da1       da2       da3       da4    solver
         1
$#    nid1      nid2      nid3      nid4      nid5      nid6      nid7      nid8
         1         2         3         4         5         6         7         8
         9        10        11        12        13        14        15        16
        17        18        19        20        21        22        23        24
        25        26        27        28        29        30        31        32
        33        34        35        36        37        38        39        40
        41        42        43        44        45        46        47        48
        49        50        51        52        53        54        55        56
        57        58        59        60        61        62        63        64
        65        66        67        68        69        70        71        72
        73        74        75        76        77        78        79        80
        81        82        83        84        85        86        87        88
        89        90        91        92        93        94        95        96
        97        98        99       100       101       102       103       104
       105       106       107       108       109       110       111       112
       113       114       115       116       117       118       119       120
       121       122       123       124       125       126       127       128
       129       130       131       132       133       134       135       136
       137       138       139       140       141       142       143       144
       145       146       147       148       149       150       151       152
       153       154       155       156       157       158       159       160
$ ... 7865 like lines cut
*SET_NODE_LIST
$#     sid       da1       da2       da3       da4    solver
         2
$#    nid1      nid2      nid3      nid4      nid5      nid6      nid7      nid8
         1         2         5         8        11        12        13        14
        15        16        17        18        19        20        21        22
        23        24        25        26        27        28        29        30
        31        32        33        34        35        36        37        38
        39        40        41        42        43        44        45        46
        47        48        49        50        51        52        53        54
        55        56        57        58        59        60        61        62
        63        64        65        66        67        68        69        70
        71        72        73        74        75        76        77        78
        79        80        81        82        83       120       121       122
       123       124       125       126       127       128       129       130
       131       132       133       134       135       136       137       138
       139       140       141       142       143       144       145       146
       147       148       149       150       151       152       153       154
       155       156       157       158       159       160       161       162
       163       164       165       166       167       168       169       170
       171       172       173       174       175       176       177       178
       179       180       181       182       183       184       185       186
       187       188       189       190       191       192       193       194
       195       196       197       198       199       200       201       202
$ ... 6839 like lines cut

*SET_NODE_LIST
$#     sid       da1       da2       da3       da4    solver
         3
$#    nid1      nid2      nid3      nid4      nid5      nid6      nid7      nid8
        10
*SET_SOLID
$#     sid    solver
         1MECH
$#      k1        k2        k3        k4        k5        k6        k7        k8
         1         2         3         4         5         6         7         8
         9        10        11        12        13        14        15        16
        17        18        19        20        21        22        23        24
        25        26        27        28        29        30        31        32
        33        34        35        36        37        38        39        40
        41        42        43        44        45        46        47        48
        49        50        51        52        53        54        55        56
        57        58        59        60        61        62        63        64
        65        66        67        68        69        70        71        72
        73        74        75        76        77        78        79        80
        81        82        83        84        85        86        87        88
        89        90        91        92        93        94        95        96
        97        98        99       100       101       102       103       104
       105       106       107       108       109       110       111       112
       113       114       115       116       117       118       119       120
       121       122       123       124       125       126       127       128
       129       130       131       132       133       134       135       136
       137       138       139       140       141       142       143       144
       145       146       147       148       149       150       151       152
       153       154       155       156       157       158       159       160
$ ... 6483 like lines cut
*SET_SOLID
$#     sid    solver
         2MECH
$#      k1        k2        k3        k4        k5        k6        k7        k8
     52023     52024     52025     52026     52027     52028     52029     52030
     52031     52032     52033     52034     52035     52036     52037     52038
     52039     52040     52041     52042     52043     52044     52045     52046
     52047     52048     52049     52050     52051     52052     52053     52054
     52055     52056     52057     52058     52059     52060     52061     52062
     52063     52064     52065     52066     52067     52068     52069     52070
     52071     52072     52073     52074     52075     52076     52077     52078
     52079     52080     52081     52082     52083     52084     52085     52086
     52087     52088     52089     52090     52091     52092     52093     52094
     52095     52096     52097     52098     52099     52100     52101     52102
     52103     52104     52105     52106     52107     52108     52109     52110
     52111     52112     52113     52114     52115     52116     52117     52118
     52119     52120     52121     52122     52123     52124     52125     52126
     52127     52128     52129     52130     52131     52132     52133     52134
     52135     52136     52137     52138     52139     52140     52141     52142
     52143     52144     52145     52146     52147     52148     52149     52150
     52151     52152     52153     52154     52155     52156     52157     52158
     52159     52160     52161     52162     52163     52164     52165     52166
     52167     52168     52169     52170     52171     52172     52173     52174
     52175     52176     52177     52178     52179     52180     52181     52182
$ ... 660 like lines cut
*END