*KEYWORD_ID
DED
*PARAMETER
Rboltz    5.6704E-14
*PARAMETER
Rambient       300.0
*PARAMETER
Rabszero         0.0
*TOOL_FILE
toolpath.crs
*GAUSS_LASER
600 1.12 0.4
*SCALAR_OUT
temp
solid_rate
theta_hist
nid_true
*CONTROL_TERMINATION
$$  ENDTIM    ENDCYC     DTMIN    ENDENG    ENDMAS
   225
*CONTROL_TIMESTEP
$$  DTINIT    TSSFAC      ISDO    TSLIMT     DT2MS      LCTM     EROD       E     MSIST
    2.0E-2       1.0
*CONTROL_SOLUTION
$$    SOLN
         0
*DATABASE_NODOUT
$$      DT    BINARY      LCUR      IOPT      DTHF     BINHF
    10         0
*MAT_THERMAL_ISOTROPIC_TD
$HMNAME MATS       1MATT1_1
         1   0.00798 1648.15  1673.15   290
./materials/316L_cp.txt
./materials/316L_cond.txt
*MAT_THERMAL_ISOTROPIC_TD
$HMNAME MATS       2MATT1_2
         2   0.00787  1693  1733   270
./materials/1018_cp.txt
./materials/1018_cond.txt
*PART
$HWCOLOR COMPS       1       3
Substrate
         1         0         1
$HWCOLOR COMPS       2       4
Build
         2         0         2
*LOAD_NODE_SET
$HMNAME LOADCOLS       1LoadNode_1
         3         1               300.0
$	 moving flux
         2         5                 0.0
$	 Radiation
         2         4                 0.2
$	 convection
         2         3             0.00005
*INITIAL_TEMPERATURE_SET
$HMNAME LOADCOLS       1InitialTemp_1
$HWCOLOR LOADCOLS       1       3
         1     300.0
*DEFINE_CURVE
         1                 1.0       1.0
          0.10000000      16885.00000000
          0.10000000      16889.00000000
          0.10000000      16888.00000000
          0.10000000      16887.00000000
          0.10000000      16886.00000000
          0.10000000      16890.00000000
          0.10000000      16884.00000000
          0.10000000      16877.00000000
          0.10000000      16882.00000000
          0.10000000      16881.00000000
          0.10000000      16879.00000000
          0.10000000      16878.00000000
          0.10000000      16875.00000000
          0.10000000      16876.00000000
          0.10000000      16883.00000000
          0.10000000      16880.00000000
          0.10000000      17811.00000000
          0.10000000      17798.00000000
          0.10000000      17806.00000000
$ ... 18461 like lines cut
*NODE
$#   nid               x               y               z      tc      rc
       1       20.000000       18.500000        7.500000       0       0
       2       18.500000       18.500000        7.500000       0       0
       3       18.500000      -18.500000        7.500000       0       0
       4       20.000000      -18.500000        7.500000       0       0
       5       18.500000       20.000000        7.500000       0       0
       6       20.000000       20.000000        7.500000       0       0
       7       18.500000      -20.000000        7.500000       0       0
       8       20.000000      -20.000000        7.500000       0       0
       9      -18.500000       20.000000        7.500000       0       0
      10      -18.500000       18.500000        7.500000       0       0
      11      -18.500000      -18.500000        7.500000       0       0
      12      -18.500000      -20.000000        7.500000       0       0
      13      -20.000000       20.000000        7.500000       0       0
      14      -20.000000       18.500000        7.500000       0       0
      15      -20.000000      -18.500000        7.500000       0       0
      16      -20.000000      -20.000000        7.500000       0       0
      17      -18.500000      -18.500000        0.000000       0       0
      18      -18.500000       18.500000        0.000000       0       0
      19       18.500000       18.500000        0.000000       0       0
      20       18.500000      -18.500000        0.000000       0       0
$ ... 54704 like lines cut
*ELEMENT_SOLID
$#   eid     pid      n1      n2      n3      n4      n5      n6      n7      n8
       1       1     182    2057      33       1    4663   28635   28619    4662
       2       1    2057    2058      34      33   28635   28636   28620   28619
       3       1    2058      35       2      34   28636    3345     649   28620
       4       1     181    2059    2057     182    4664   28637   28635    4663
       5       1    2059    2060    2058    2057   28637   28638   28636   28635
       6       1    2060      36      35    2058   28638    3344    3345   28636
       7       1     180    2061    2059     181    4665   28639   28637    4664
       8       1    2061    2062    2060    2059   28639   28640   28638   28637
       9       1    2062      37      36    2060   28640    3343    3344   28638
      10       1     179    2063    2061     180    4666   28641   28639    4665
      11       1    2063    2064    2062    2061   28641   28642   28640   28639
      12       1    2064      38      37    2062   28642    3342    3343   28640
      13       1     178    2065    2063     179    4667   28643   28641    4666
      14       1    2065    2066    2064    2063   28643   28644   28642   28641
      15       1    2066      39      38    2064   28644    3341    3342   28642
      16       1     177    2067    2065     178    4668   28645   28643    4667
      17       1    2067    2068    2066    2065   28645   28646   28644   28643
      18       1    2068      40      39    2066   28646    3340    3341   28644
      19       1     176    2069    2067     177    4669   28647   28645    4668
      20       1    2069    2070    2068    2067   28647   28648   28646   28645
$ ... 40540 like lines cut
*SET_NODE_LIST
$#     sid       da1       da2       da3       da4    solver
         1
$#    nid1      nid2      nid3      nid4      nid5      nid6      nid7      nid8
         1         2         3         4         5         6         7         8
         9        10        11        12        13        14        15        16
        17        18        19        20        21        22        23        24
        25        26        27        28        29        30        31        32
        33        34        35        36        37        38        39        40
        41        42        43        44        45        46        47        48
        49        50        51        52        53        54        55        56
        57        58        59        60        61        62        63        64
        65        66        67        68        69        70        71        72
        73        74        75        76        77        78        79        80
        81        82        83        84        85        86        87        88
        89        90        91        92        93        94        95        96
        97        98        99       100       101       102       103       104
       105       106       107       108       109       110       111       112
       113       114       115       116       117       118       119       120
       121       122       123       124       125       126       127       128
       129       130       131       132       133       134       135       136
       137       138       139       140       141       142       143       144
       145       146       147       148       149       150       151       152
       153       154       155       156       157       158       159       160
$ ... 6821 like lines cut
*SET_NODE_LIST
$#     sid       da1       da2       da3       da4    solver
         2
$#    nid1      nid2      nid3      nid4      nid5      nid6      nid7      nid8
         1         2         3         4         5         6         7         8
         9        10        11        12        13        14        15        16
        17        18        19        20        21        22        23        24
        25        26        27        28        33        34        35        36
        37        38        39        40        41        42        43        44
        45        46        47        48        49        50        51        52
        53        54        55        56        57        58        59        60
        61        62        63        64        65        66        67        68
        69        70        71        72        73        74        75        76
        77        78        79        80        81        82        83        84
        85        86        87        88        89        90        91        92
        93        94        95        96        97        98        99       100
       101       102       103       104       105       106       107       108
       109       110       111       112       113       114       115       116
       117       118       119       120       121       122       123       124
       125       126       127       128       129       130       131       132
       133       134       135       136       137       138       139       140
       141       142       143       144       145       146       147       148
       149       150       151       152       153       154       155       156
       157       158       159       160       161       162       163       164
$ ... 4001 like lines cut
*SET_NODE_LIST
$#     sid       da1       da2       da3       da4    solver
         3
$#    nid1      nid2      nid3      nid4      nid5      nid6      nid7      nid8
        29        30        31        32      1741      1742      1743      1744
      1745      1746      1747      1748      1749      1750      1751      1752
      1753      1754      1755      1756      1757      1758      1759      1760
      1761      1762      1763      1764      1765      1766      1767      1768
      1769      1770      1771      1772      1773      1774      1775      1776
      1777      1778      1779      1780      1781      1782      1783      1784
      1785      1786      1787      1788      1789      1790      1791      1792
      1793      1794      1795      1796      1797      1798      1799      1800
      1801      1802      1803      1804      1805      1806      1807      1808
      1809      1810      1811      1812      1813      1814      1815      1816
      1817      1818      1819      1820      1821      1822      1823      1824
      1825      1826      1827      1828      1829      1830      1831      1832
      1833      1834      1835      1836      1837      1838      1839      1840
      1841      1842      1843      1844      1845      1846      1847      1848
      1849      1850      1851      1852      1853      1854      1855      1856
      1857      1858      1859      1860      1861      1862      1863      1864
      1865      1866      1867      1868      1869      1870      1871      1872
      1873      1874      1875      1876      1877      1878      1879      1880
      1881      1882      1883      1884      1885      1886      1887      1888
      1889      1890      1891      1892      1893      1894      1895      1896
$ ... 921 like lines cut
*SET_SOLID
$#     sid    solver
         1MECH
$#      k1        k2        k3        k4        k5        k6        k7        k8
         1         2         3         4         5         6         7         8
         9        10        11        12        13        14        15        16
        17        18        19        20        21        22        23        24
        25        26        27        28        29        30        31        32
        33        34        35        36        37        38        39        40
        41        42        43        44        45        46        47        48
        49        50        51        52        53        54        55        56
        57        58        59        60        61        62        63        64
        65        66        67        68        69        70        71        72
        73        74        75        76        77        78        79        80
        81        82        83        84        85        86        87        88
        89        90        91        92        93        94        95        96
        97        98        99       100       101       102       103       104
       105       106       107       108       109       110       111       112
       113       114       115       116       117       118       119       120
       121       122       123       124       125       126       127       128
       129       130       131       132       133       134       135       136
       137       138       139       140       141       142       143       144
       145       146       147       148       149       150       151       152
       153       154       155       156       157       158       159       160
$ ... 2290 like lines cut

*SET_SOLID
$#     sid    solver
         2MECH
$#      k1        k2        k3        k4        k5        k6        k7        k8
     18481     18482     18483     18484     18485     18486     18487     18488
     18489     18490     18491     18492     18493     18494     18495     18496
     18497     18498     18499     18500     18501     18502     18503     18504
     18505     18506     18507     18508     18509     18510     18511     18512
     18513     18514     18515     18516     18517     18518     18519     18520
     18521     18522     18523     18524     18525     18526     18527     18528
     18529     18530     18531     18532     18533     18534     18535     18536
     18537     18538     18539     18540     18541     18542     18543     18544
     18545     18546     18547     18548     18549     18550     18551     18552
     18553     18554     18555     18556     18557     18558     18559     18560
     18561     18562     18563     18564     18565     18566     18567     18568
     18569     18570     18571     18572     18573     18574     18575     18576
     18577     18578     18579     18580     18581     18582     18583     18584
     18585     18586     18587     18588     18589     18590     18591     18592
     18593     18594     18595     18596     18597     18598     18599     18600
     18601     18602     18603     18604     18605     18606     18607     18608
     18609     18610     18611     18612     18613     18614     18615     18616
     18617     18618     18619     18620     18621     18622     18623     18624
     18625     18626     18627     18628     18629     18630     18631     18632
     18633     18634     18635     18636     18637     18638     18639     18640
$ ... 2740 like lines cut

*END